Circuit: * C:\Users\premk\OneDrive\Projects\Radio\Air1\Draft1.asc


Date: Mon Feb 13 15:05:52 2023
Total elapsed time: 0.046 seconds.

tnom = 27
temp = 27
method = trap
totiter = 0
traniter = 0
tranpoints = 0
accept = 0
rejected = 0
matrix size = 6
fillins = 1
solver = Normal

